$ -------------------------------------------------------------------- $
$ WAVEWATCH III Field preprocessor input file                          $
$ -------------------------------------------------------------------- $
$ For Wind:
$   'WND' 'LL' T T
$   lon lat
$   uas vas
$   JRA55-do-1p3.wind.2004.nc
   'ICE' 'LL' T T
   lon lat
   ICE
   JRA55-do-1p3.ice.2004.nc